276

 Cl -16.615199 -27.531061  9.198947
 Cl -14.392808 -29.607477 12.328896
 Cl -10.447386 -21.262619  2.891378
 Cl -8.199093 -23.505819  5.935334
 Cl -2.198006 -4.115492  9.126238
 Cl -17.663529 -32.814014 12.108364
 Cl -13.470905 -24.410613  2.951291
 Cl -11.391235 -26.646003  5.969733
 Cl -12.261564 -32.029221  9.139872
 Cl -2.946362 -9.682018 12.320924
 Cl -16.691928 -27.326755  2.862046
 Cl -14.490339 -29.782634  5.904470
 Cl -18.645708 -38.291313  9.243678
 Cl -9.443569 -15.635132 12.227775
 Cl -15.516864 -35.218443  9.088769
 Cl -6.170832 -12.810176 12.114225
 Cl -2.259430 -4.010981  2.961152
 Cl -17.735672 -32.859973  5.972554
 Cl -21.775884 -41.420228  9.281375
 Cl -12.552581 -18.808927 12.490980
 Cl -15.566851 -35.167287  2.730103
 Cl -6.268822 -12.645938  5.898620
 Cl -12.420933 -32.042205  2.767155
 Cl -3.204202 -9.593176  5.881364
 Cl -7.159457 -18.081809  9.164317
 Cl -22.528208 -46.999370 12.176582
 Cl -18.715698 -38.028869  3.003916
 Cl -9.464330 -15.756079  6.036412
 Cl -10.381284 -21.322579  9.238175
 Cl -8.103224 -23.820814 12.288274
 Cl -4.136800 -15.157224  2.935849
 Cl -12.546218 -18.860900  6.058115
 Cl -13.404981 -24.362499  9.150596
 Cl -11.280233 -26.756443 12.237364
 Cl -7.226086 -18.083279  2.869935
 Cl -22.731783 -46.861598  5.854837
 Na -8.538474 -12.833157  1.122616
 Na -7.011672 -15.578395  4.450242
 Na -22.056600 -43.862716  7.719377
 Na -13.088221 -21.933349 10.731937
 Na -19.552255 -41.419286  1.252626
 Na -9.873621 -15.315192  2.922619
 Na -9.655900 -18.183269  4.527081
 Na -6.962700 -18.409658  6.146368
 Na -7.985163 -21.045498  7.627716
 Na -22.946305 -46.603444  9.245293
 Na -15.758617 -24.635526 10.677055
 Na -13.132108 -24.613627 12.677056
 Na -12.303481 -19.105464  3.190283
 Na -10.585111 -20.987679  5.913741
 Na -7.908007 -23.847952  9.184668
 Na -16.585999 -27.478612 12.035871
 Na -12.884215 -21.058001  0.936037
 Na -10.761494 -23.865279  4.524034
 Na -8.678299 -26.431307  7.655473
 Na -17.432240 -30.256253 10.587081
 Na -14.199677 -27.079057  1.373071
 Na -11.505693 -26.529199  2.868205
 Na -16.626755 -24.768553  0.938280
 Na -11.799826 -29.141382  4.518737
 Na -2.020067 -4.307664  6.131959
 Na -14.116060 -27.113842  4.476650
 Na -2.641948 -7.094840  7.384638
 Na -17.475209 -33.038744  9.017948
 Na -11.868598 -29.496037  7.634375
 Na -18.204166 -35.479727 10.959035
 Na -15.733818 -34.838045 12.650340
 Na -2.484029 -6.566930 10.521417
 Na -16.585691 -30.115883  0.745748
 Na -14.373702 -29.917425  3.045322
 Na -8.698659 -26.247511  1.287232
 Na -15.345873 -32.448718  4.529386
 Na -12.382499 -32.096843  5.687989
 Na -17.280068 -29.924213  4.177804
 Na -5.779831 -10.052968  7.507059
 Na -3.309285 -9.412096  9.397889
 Na -14.683403 -32.400707  7.733917
 Na -3.553022 -12.239079 10.714488
 Na -18.455083 -38.403628 12.112584
 Na -6.039576 -10.289438 10.862242
 Na -14.922708 -32.657832  1.477247
 Na -6.087266 -10.114135  4.298698
 Na -21.088708 -38.483156  7.649351
 Na -19.334998 -41.187765 10.766308
 Na -2.918539 -7.488673  0.693353
 Na -17.996859 -32.534086  2.469477
 Na -11.820110 -29.333631  1.285097
 Na -18.296759 -35.416186  4.511164
 Na -15.707001 -34.982751  6.227901
 Na -2.736859 -6.606938  4.139838
 Na -8.756672 -13.038563  7.514642
 Na -6.072041 -12.898916  9.093282
 Na -18.258366 -35.863879  7.750321
 Na -6.863225 -15.486632 10.836166
 Na -4.344552 -14.830078 12.410911
 Na -8.756916 -12.832723 10.712883
 Na -18.101775 -35.617847  1.455406
 Na -8.791133 -12.758078  4.359176
 Na -6.933258 -15.635261  7.651288
 Na -21.959413 -43.986978 10.892356
 Na -5.932866 -10.476729  0.949777
 Na -3.404247 -9.389675  3.016604
 Na -3.529866 -12.132801  4.398278
 Na -18.471909 -38.431319  5.889191
 Na -19.238311 -41.136730  7.614273
 Na -9.630078 -15.553723  9.294499
 Na -9.663980 -18.216842 11.003656
 Na -6.764723 -18.648620 12.064220
 Na -3.213273 -11.835227  1.097130
 Na -19.349531 -41.160121  4.492947
 Na -9.689534 -18.379273  7.702629
 Na -7.840672 -21.245675 10.860661
 Na -5.950807 -13.067186  2.853382
 Na -4.360306 -14.794557  5.974339
 Na -12.229160 -19.190532  9.287905
 Na -10.582659 -20.850819 12.280410
 Na -22.214660 -43.839238  1.338075
 Na -7.230666 -15.665334  1.266624
 Na -13.180412 -21.893372  4.284288
 Na -22.202628 -44.082608  4.464175
 Na -10.733735 -23.754808  7.685216
 Na -13.199102 -21.692639  7.560226
 Na -8.864324 -26.329221 10.905834
 Na -10.648268 -23.891378 10.858100
 Na -8.221300 -21.109503  1.114947
 Na -22.855313 -46.734305  2.509105
 Na -9.665924 -18.101232  1.340249
 Na -15.957107 -24.591510  4.292113
 Na -13.335869 -24.498889  6.079522
 Na -7.766219 -20.827901  4.338779
 Na -14.141192 -27.083996  7.669510
 Na -11.385803 -26.601563  9.077638
 Na -16.113342 -24.497513  7.490530
 Na -11.809045 -29.336119 10.805228
 Na -2.242429 -4.081414 12.646494
 Na -13.774752 -27.080864 10.935517
 Na -10.956478 -23.827267  1.449020
 Na -8.098096 -23.696146  3.075892
 Na -8.965725 -26.393338  4.489185
 Na -16.827743 -27.256801  6.004609
 Na -16.902198 -30.181606  7.426914
 Na -14.555699 -29.686446  9.398623
 Na -15.023049 -32.344162 10.984900
 Na -5.042757 -7.602618 12.058371
 Na -16.269970 -24.538284 13.657301
 Na -22.012122 -43.661811 14.254990
 Na -22.920610 -46.522175 16.375793
 Na -20.043236 -40.283329 17.092162
 Na -21.341948 -43.374980 18.033447
 Na -18.664238 -37.049563 18.322263
 Na -19.830554 -39.935627 20.622290
 Na -17.467076 -33.573324 22.753919
 Na -18.846260 -36.714101 22.046274
 Na -16.333721 -30.318299 24.226638
 Na -17.604711 -33.226746 26.149102
 Na -15.307131 -27.074374 25.534035
 Na -2.299770 -7.110731 13.581448
 Na -0.991561 -1.521498 14.198945
 Na -1.647311 -4.704068 16.292177
 Na -17.309129 -25.082305 16.909997
 Na -0.555711 -1.843045 18.019654
 Na -22.837862 -46.199328 19.733779
 Na -17.030053 -24.764264 20.493214
 Na -21.410983 -42.975756 21.720710
 Na -23.039170 -46.124853 23.019689
 Na -20.430672 -39.873560 24.193393
 Na -22.136502 -43.101162 25.229239
 Na -19.137346 -36.525110 25.649323
 Na -8.385083 -12.993266 13.747503
 Na -12.043949 -29.980944 13.979531
 Na -13.434216 -33.801725 14.520534
 Na -11.156441 -26.989700 19.731468
 Na -12.116686 -30.016378 17.646302
 Na -9.944124 -23.940503 18.458597
 Na -11.355537 -26.702471 23.038683
 Na -8.601210 -20.428890 21.316691
 Na -10.101872 -23.541460 22.114488
 Na -7.999387 -16.866607 25.367074
 Na -9.119887 -20.185427 24.786900
 Na -5.853858 -13.713040 26.406181
 Na -7.394124 -16.423022 13.903618
 Na -3.615759 -12.088406 13.806655
 Na -5.834135 -14.247489 16.177892
 Na -2.970535 -7.993900 16.919801
 Na -4.528571 -11.108030 17.604386
 Na -1.852990 -4.836034 19.648657
 Na -3.297830 -7.909044 20.508534
 Na -0.755935 -1.482386 21.582981
 Na -2.069421 -4.524581 22.916807
 Na -24.470425 -49.316209 24.129137
 Na -1.128783 -1.341487 25.210156
 Na -23.634259 -46.198600 26.335491
 Na -13.157748 -21.738606 13.924093
 Na -9.626322 -14.959235 16.531410
 Na -11.061705 -18.659409 15.927382
 Na -8.102528 -11.680098 17.420193
 Na -9.257166 -14.592313 19.929626
 Na -13.723293 -33.228413 18.686123
 Na -15.251725 -36.249056 21.128081
 Na -12.502665 -29.987536 21.272502
 Na -13.878774 -33.095367 22.370010
 Na -11.805876 -26.402916 26.345663
 Na -12.763054 -29.538100 24.890662
 Na -10.220720 -23.327072 25.727239
 Na -11.073157 -26.812094 16.179886
 Na -8.277457 -20.182600 14.379447
 Na -10.390712 -23.443541 14.143038
 Na -7.330661 -17.377231 17.682136
 Na -8.638025 -20.713215 17.881150
 Na -5.689214 -14.180922 19.565987
 Na -7.369263 -17.121014 21.527749
 Na -4.630991 -11.051561 21.317912
 Na -6.187208 -13.967574 22.964544
 Na -3.422344 -7.508831 24.171356
 Na -4.925711 -10.657051 24.920009
 Na -2.420277 -4.366424 26.339792
 Na -16.761092 -30.495929 13.581796
 Na -13.650433 -24.503843 16.573269
 Na -14.390739 -27.201526 14.206228
 Na -12.288277 -21.438967 17.501807
 Na -13.361035 -24.209019 19.977456
 Na -10.739220 -17.904860 19.269985
 Na -12.233165 -20.881488 21.029091
 Na -9.700789 -14.366853 23.285277
 Na -10.856291 -17.693810 22.670069
 Na -15.548032 -36.124651 25.017208
 Na -10.649691 -14.744285 26.538476
 Na -13.918830 -32.638742 25.825214
 Na -18.934590 -41.003041 13.770484
 Na -16.893315 -33.613355 16.114240
 Na -18.168480 -36.390920 14.375655
 Na -15.586567 -30.476402 16.931966
 Na -17.345368 -33.925218 19.416556
 Na -14.631245 -27.392801 18.435976
 Na -16.053606 -30.582247 20.548960
 Na -13.775734 -24.144639 23.234410
 Na -14.845888 -27.364988 22.037061
 Na -12.719230 -21.029243 24.590623
 Na -14.112561 -23.824051 26.566680
 Na -11.711083 -18.043743 25.933609
  O -7.907325 -14.203126  2.804301
  O -5.699232 -16.589628  6.014699
  O -21.123513 -45.284540  9.205488
  O -11.796775 -22.760372 12.483651
  O -11.017567 -17.265217  2.909087
  O -8.798533 -19.654566  6.026781
  O -6.602729 -22.042374  9.112681
  O -14.994358 -25.912991 12.436618
  O -12.982751 -28.206875  2.832400
  O -3.729989 -5.735411  5.973020
  O -19.223850 -34.443111  9.192965
  O -16.973370 -36.722440 12.461161
  O -16.133215 -31.240695  2.692872
  O -13.992896 -33.615191  5.934682
  O -4.704067 -11.128615  9.153277
  O -20.207469 -39.823796 12.405479
  O -19.390391 -34.326384  2.705328
  O -17.087387 -36.687839  5.993959
  O -7.838398 -14.247879  9.164446
  O -5.675094 -16.693493 12.437188
  O -4.729483 -11.181655  2.698443
  O -20.232042 -39.820807  6.056005
  O -10.947818 -17.364835  9.277771
  O -8.663663 -19.749913 12.286269
  O -21.146025 -45.236350  2.712915
  O -11.956017 -22.744819  6.024660
  O -9.712914 -25.123902  9.177915
  O -18.118867 -29.097600 12.448360
  O -6.746755 -21.994490  2.587980
  O -15.106569 -25.847921  6.019334
  O -12.923712 -28.218219  9.179338
  O -3.655752 -5.844924 12.356396
  O -9.802459 -25.081128  2.860043
  O -18.222437 -28.999753  6.052512
  O -16.025052 -31.326445  9.174800
  O -13.874354 -33.683835 12.356265
