96

  P  0.213472  5.209751  7.905599
  P -0.205552  5.471355 15.471561
  P  0.220510 11.829822  7.917682
  P -0.011958 12.194500 15.501414
  P -3.164955 14.477836 11.506230
  P  0.227877 18.445782  7.918768
  P -3.633480 14.854541 19.884024
  P -0.178864 18.742584 15.399335
  P -3.194885 21.138051 11.505308
  P -3.168878 21.238153 19.807124
  P -3.196385 27.783777 11.518926
  P -3.150640 27.735252 19.744888
 Li -3.119200 11.101399 13.459486
 Li -3.102669 11.149860  9.536081
 Li -1.909992 10.266560 20.279514
 Li -2.814385 11.919318 17.917452
 Li -3.188190 17.576453 13.438033
 Li -3.087417 17.729349  9.564999
 Li -2.876114 13.912772  7.927222
 Li -1.876394 16.991552 20.260152
 Li -3.340571 18.037001 17.454099
 Li -3.450220 13.733728 14.736422
 Li -3.219356 24.227964 13.389712
 Li -3.108738 24.365116  9.548189
 Li -0.106104  2.196375 13.512638
 Li -5.460305 22.194807  8.921412
 Li -0.205287  6.064624 11.416911
 Li -2.892318 20.531127  7.908370
 Li -2.319134 23.779535 20.422041
 Li -3.358837 24.692946 17.540226
 Li -0.753673  0.684120 21.216860
 Li -0.140718  2.277458 17.460249
 Li -0.322810  6.587480 18.020590
 Li -3.677265 20.186146 14.255553
 Li -0.073445  9.001409 13.500499
 Li -5.471012 28.833859  8.933991
 Li -0.127135 12.618855 11.568344
 Li -2.897793 27.143933  7.885356
 Li -0.700274  7.284367 21.170904
 Li  0.031018  9.187477 17.577746
 Li  0.390826 12.980606 18.963733
 Li -3.673920 26.855589 14.280503
 Li -0.021456 15.423650 13.502471
 Li -5.489196 35.438162  8.964928
 Li -0.184126 19.255415 11.501497
 Li -1.040251 14.141273 21.177658
 Li -0.442573 15.498046 17.598751
 Li -0.101621 19.513783 18.328920
  S -2.488971  8.801680 13.280642
  S -2.365614  8.759804  9.839000
  S -2.555173 12.516052 11.603274
  S -1.797925 11.823615  7.568392
  S -2.647914  8.515976 21.596405
  S -2.468968  9.021371 18.202113
  S -1.585190 12.391516 19.875349
  S -2.044060 11.842814 15.647498
  S -2.462695 15.350703 13.283813
  S -2.318228 15.372805  9.863368
  S -5.188681 16.987957  6.774442
  S -5.519654 17.886541  9.860385
  S -2.608558 19.168647 11.669760
  S -1.805844 18.438388  7.604791
  S -2.901432 15.545718 21.704987
  S -2.678702 15.933556 18.330698
  S -5.655431 17.973697 13.667957
  S -5.704728 17.692391 17.040472
  S -2.303008 19.385901 19.526336
  S -2.233905 18.631840 15.459097
  S -2.520480 22.022209 13.286681
  S -2.364209 21.998561  9.850909
  S -5.182667 23.611149  6.774483
  S -5.537331 24.487356  9.843748
  S -2.609078 25.798188 11.671657
  S -5.279491 20.296268  7.391617
  S -5.241868 21.385418 11.493057
  S -1.813518 25.049307  7.587184
  S -2.667066 21.884674 21.704317
  S -2.411540 22.501344 18.364235
  S -5.667448 24.527444 13.731835
  S -5.747313 24.377927 17.176860
  S -2.231807 25.893986 19.486483
  S -5.719198 20.688986 15.638179
  S -5.243843 21.257248 19.687916
  S -2.259508 25.157483 15.481635
  S -5.175381 30.232156  6.777972
  S -5.539191 31.104607  9.851096
  S -5.282115 26.923476  7.409156
  S -5.231219 27.998921 11.534062
  S -5.554481 31.220477 13.770260
  S -5.288256 31.169843 17.146174
  S -5.751056 27.261722 15.689248
  S -5.204431 27.743591 19.614913
  S -5.259852 33.525703  7.390910
  S -5.201289 34.610387 11.453493
  S -5.707581 34.050591 15.618037
  S -5.647251 35.420659 19.835562
